CE
GW	1	11	-0.75	0	0.25	-0.75	0	-0.25	2.e-4
GW	2	11	-0.25	0	0.25	-0.25	0	-0.25	2.e-4
GW	3	11	0.25	0	0.25	0.25	0	-0.25	2.e-4
GW	4	11	0.75	0	0.25	0.75	0	-0.25	2.e-4
GE	0
EK
EX	6	1	6	0	1	0
EX	6	2	6	0	3	0
EX	6	3	6	0	3	0
EX	6	4	6	0	1	0
GN	-1
FR	0	1	0	0	300	0
